Results/Brussels debug 23_05/no conductors/Brussels_2sub/network_debug.txt
Pandapower Network Debug Info
==================================================

BUS:
          name  vn_kv type  zone  in_service   geo
0       Bus 27   15.0    b  None        True  None
1        Bus 7   15.0    b  None        True  None
2        Bus 5    0.4    b  None        True  None
3       Bus 13    0.4    b  None        True  None
4       Bus 10    0.4    b  None        True  None
5       Bus 35   15.0    b  None        True  None
6       Bus 15    0.4    b  None        True  None
7        Bus 1    0.4    b  None        True  None
8       Bus 36    0.4    b  None        True  None
9        Bus 3   15.0    b  None        True  None
10      Bus 30    0.4    b  None        True  None
11      Bus 11   15.0    b  None        True  None
12      Bus 31   15.0    b  None        True  None
13      Bus 12    0.4    b  None        True  None
14       Bus 9    0.4    b  None        True  None
15      Bus 28    0.4    b  None        True  None
16       Bus 8    0.4    b  None        True  None
17      Bus 26   15.0    b  None        True  None
18      Bus 16    0.4    b  None        True  None
19      Bus 38    0.4    b  None        True  None
20      Bus 29    0.4    b  None        True  None
21       Bus 6   15.0    b  None        True  None
22       Bus 2    0.4    b  None        True  None
23       Bus 4   15.0    b  None        True  None
24      Bus 40   15.0    b  None        True  None
25      Bus 32   15.0    b  None        True  None
26      Bus 34    0.4    b  None        True  None
27      Bus 14    0.4    b  None        True  None
28      Bus 33   15.0    b  None        True  None
29      Bus 39   15.0    b  None        True  None
30      Bus 37   15.0    b  None        True  None
31      Bus 19    0.4    b  None        True  None
32      Bus 20    0.4    b  None        True  None
33      Bus 24   15.0    b  None        True  None
34      Bus 21   15.0    b  None        True  None
35      Bus 18    0.4    b  None        True  None
36      Bus 23    0.4    b  None        True  None
37      Bus 47   15.0    b  None        True  None
38      Bus 45    0.4    b  None        True  None
39      Bus 41    0.4    b  None        True  None
40      Bus 22   15.0    b  None        True  None
41      Bus 17   15.0    b  None        True  None
42      Bus 42   15.0    b  None        True  None
43      Bus 49    0.4    b  None        True  None
44      Bus 50    0.4    b  None        True  None
45      Bus 46   15.0    b  None        True  None
46      Bus 48    0.4    b  None        True  None
47      Bus 25    0.4    b  None        True  None
48      Bus 43   15.0    b  None        True  None
49      Bus 44    0.4    b  None        True  None
50   Sub MV 51   15.0    b  None        True  None
51   Sub LV 51    0.4    b  None        True  None
52   Sub MV 54   15.0    b  None        True  None
53   Sub LV 54    0.4    b  None        True  None
54   Sub MV 55   15.0    b  None        True  None
55   Sub LV 55    0.4    b  None        True  None
56   Sub MV 56   15.0    b  None        True  None
57   Sub LV 56    0.4    b  None        True  None
58   Sub MV 58   15.0    b  None        True  None
59   Sub LV 58    0.4    b  None        True  None
60  Slack HV 0   70.0    b  None        True  None
61  Slack MV 0   15.0    b  None        True  None
--------------------------------------------------

LOAD:
             name  bus      p_mw        q_mvar  const_z_percent  const_i_percent  sn_mva  scaling  in_service type
0      Load 27 T1    0  0.126879 -1.750562e-06              0.0              0.0     NaN      1.0        True  wye
1      Load 27 T2    0  0.126879 -1.750562e-06              0.0              0.0     NaN      1.0        True  wye
2      Load 27 T3    0  0.126879 -1.750562e-06              0.0              0.0     NaN      1.0        True  wye
3      Load 27 T4    0  0.126879 -1.750562e-06              0.0              0.0     NaN      1.0        True  wye
4      Load 27 T5    0  0.128051 -1.793160e-06              0.0              0.0     NaN      1.0        True  wye
5      Load 27 T6    0  0.146279 -6.808943e-03              0.0              0.0     NaN      1.0        True  wye
6      Load 27 T7    0  0.165314 -1.124079e-02              0.0              0.0     NaN      1.0        True  wye
7      Load 27 T8    0  0.297653  6.116517e-02              0.0              0.0     NaN      1.0        True  wye
8      Load 27 T9    0  0.295589  4.276667e-02              0.0              0.0     NaN      1.0        True  wye
9     Load 27 T10    0  0.293371  1.323072e-02              0.0              0.0     NaN      1.0        True  wye
10    Load 27 T11    0  0.292160  4.684110e-03              0.0              0.0     NaN      1.0        True  wye
11    Load 27 T12    0  0.273688 -2.178719e-04              0.0              0.0     NaN      1.0        True  wye
12    Load 27 T13    0  0.294119  9.723003e-03              0.0              0.0     NaN      1.0        True  wye
13    Load 27 T14    0  0.293489  6.216765e-03              0.0              0.0     NaN      1.0        True  wye
14    Load 27 T15    0  0.293984  5.187476e-03              0.0              0.0     NaN      1.0        True  wye
15    Load 27 T16    0  0.296294  6.796447e-03              0.0              0.0     NaN      1.0        True  wye
16    Load 27 T17    0  0.196921 -4.296798e-06              0.0              0.0     NaN      1.0        True  wye
17    Load 27 T18    0  0.165176 -3.142770e-06              0.0              0.0     NaN      1.0        True  wye
18    Load 27 T19    0  0.166539 -7.106189e-04              0.0              0.0     NaN      1.0        True  wye
19    Load 27 T20    0  0.156927 -3.425085e-03              0.0              0.0     NaN      1.0        True  wye
20    Load 27 T21    0  0.156927 -7.941822e-03              0.0              0.0     NaN      1.0        True  wye
21    Load 27 T22    0  0.147034 -1.264082e-03              0.0              0.0     NaN      1.0        True  wye
22    Load 27 T23    0  0.142088 -9.487307e-03              0.0              0.0     NaN      1.0        True  wye
23    Load 27 T24    0  0.126879 -1.750562e-06              0.0              0.0     NaN      1.0        True  wye
24      Load 7 T1    1  0.125313  2.005140e-02              0.0              0.0     NaN      1.0        True  wye
25      Load 7 T2    1  0.125313  1.875714e-02              0.0              0.0     NaN      1.0        True  wye
26      Load 7 T3    1  0.125313  1.732556e-02              0.0              0.0     NaN      1.0        True  wye
27      Load 7 T4    1  0.125313  1.824578e-02              0.0              0.0     NaN      1.0        True  wye
28      Load 7 T5    1  0.126470  1.965028e-02              0.0              0.0     NaN      1.0        True  wye
29      Load 7 T6    1  0.144473  3.127001e-02              0.0              0.0     NaN      1.0        True  wye
30      Load 7 T7    1  0.163289  3.970297e-02              0.0              0.0     NaN      1.0        True  wye
31      Load 7 T8    1  0.294124  1.112150e-01              0.0              0.0     NaN      1.0        True  wye
32      Load 7 T9    1  0.292253  9.304367e-02              0.0              0.0     NaN      1.0        True  wye
33     Load 7 T10    1  0.290281  6.387236e-02              0.0              0.0     NaN      1.0        True  wye
34     Load 7 T11    1  0.289204  5.543126e-02              0.0              0.0     NaN      1.0        True  wye
35     Load 7 T12    1  0.271106  5.058980e-02              0.0              0.0     NaN      1.0        True  wye
36     Load 7 T13    1  0.290946  6.040794e-02              0.0              0.0     NaN      1.0        True  wye
37     Load 7 T14    1  0.290386  5.694499e-02              0.0              0.0     NaN      1.0        True  wye
38     Load 7 T15    1  0.290826  5.592841e-02              0.0              0.0     NaN      1.0        True  wye
39     Load 7 T16    1  0.292881  5.751752e-02              0.0              0.0     NaN      1.0        True  wye
40     Load 7 T17    1  0.194580  1.414868e-02              0.0              0.0     NaN      1.0        True  wye
41     Load 7 T18    1  0.163168  1.059355e-02              0.0              0.0     NaN      1.0        True  wye
42     Load 7 T19    1  0.164491  2.711468e-02              0.0              0.0     NaN      1.0        True  wye
43     Load 7 T20    1  0.154990  2.888769e-02              0.0              0.0     NaN      1.0        True  wye
44     Load 7 T21    1  0.154990  3.077365e-02              0.0              0.0     NaN      1.0        True  wye
45     Load 7 T22    1  0.145219  2.888520e-02              0.0              0.0     NaN      1.0        True  wye
46     Load 7 T23    1  0.140334  3.319558e-02              0.0              0.0     NaN      1.0        True  wye
47     Load 7 T24    1  0.125313  1.942158e-02              0.0              0.0     NaN      1.0        True  wye
48      Load 5 T1    2  0.002462 -1.145821e-06              0.0              0.0     NaN      1.0        True  wye
49      Load 5 T2    2  0.002385 -1.110057e-06              0.0              0.0     NaN      1.0        True  wye
50      Load 5 T3    2  0.002385 -1.110057e-06              0.0              0.0     NaN      1.0        True  wye
51      Load 5 T4    2  0.002387 -1.110846e-06              0.0              0.0     NaN      1.0        True  wye
52      Load 5 T5    2  0.003566 -2.042298e-06              0.0              0.0     NaN      1.0        True  wye
53      Load 5 T6    2  0.008369 -1.078006e-05              0.0              0.0     NaN      1.0        True  wye
54      Load 5 T7    2  0.010831 -1.810889e-05              0.0              0.0     NaN      1.0        True  wye
55      Load 5 T8    2  0.008841 -6.462893e-04              0.0              0.0     NaN      1.0        True  wye
56      Load 5 T9    2  0.007814 -1.734794e-04              0.0              0.0     NaN      1.0        True  wye
57     Load 5 T10    2  0.003844 -2.473234e-06              0.0              0.0     NaN      1.0        True  wye
58     Load 5 T11    2  0.003449 -1.860999e-06              0.0              0.0     NaN      1.0        True  wye
59     Load 5 T12    2  0.002994  6.085299e-04              0.0              0.0     NaN      1.0        True  wye
60     Load 5 T13    2  0.003930 -2.605835e-06              0.0              0.0     NaN      1.0        True  wye
61     Load 5 T14    2  0.003785 -2.380803e-06              0.0              0.0     NaN      1.0        True  wye
62     Load 5 T15    2  0.003864 -2.503304e-06              0.0              0.0     NaN      1.0        True  wye
63     Load 5 T16    2  0.004712 -6.598566e-04              0.0              0.0     NaN      1.0        True  wye
64     Load 5 T17    2  0.007052 -7.433498e-06              0.0              0.0     NaN      1.0        True  wye
65     Load 5 T18    2  0.007236 -7.717161e-06              0.0              0.0     NaN      1.0        True  wye
66     Load 5 T19    2  0.007151 -7.586099e-06              0.0              0.0     NaN      1.0        True  wye
67     Load 5 T20    2  0.008148 -1.012144e-05              0.0              0.0     NaN      1.0        True  wye
68     Load 5 T21    2  0.007977 -9.612981e-06              0.0              0.0     NaN      1.0        True  wye
69     Load 5 T22    2  0.005072 -4.371591e-06              0.0              0.0     NaN      1.0        True  wye
70     Load 5 T23    2  0.002669 -1.241982e-06              0.0              0.0     NaN      1.0        True  wye
71     Load 5 T24    2  0.002526 -1.175624e-06              0.0              0.0     NaN      1.0        True  wye
72     Load 13 T1    3  0.020774 -8.453144e-05              0.0              0.0     NaN      1.0        True  wye
73     Load 13 T2    3  0.020774 -8.394209e-05              0.0              0.0     NaN      1.0        True  wye
74     Load 13 T3    3  0.020774 -8.394209e-05              0.0              0.0     NaN      1.0        True  wye
75     Load 13 T4    3  0.020774 -8.395510e-05              0.0              0.0     NaN      1.0        True  wye
76     Load 13 T5    3  0.021120 -9.564897e-05              0.0              0.0     NaN      1.0        True  wye
77     Load 13 T6    3  0.026252 -1.871430e-04              0.0              0.0     NaN      1.0        True  wye
78     Load 13 T7    3  0.034319 -3.138231e-04              0.0              0.0     NaN      1.0        True  wye
79     Load 13 T8    3  0.077478  7.917900e-03              0.0              0.0     NaN      1.0        True  wye
80     Load 13 T9    3  0.072477  1.134078e-03              0.0              0.0     NaN      1.0        True  wye
81    Load 13 T10    3  0.069757 -8.426987e-04              0.0              0.0     NaN      1.0        True  wye
82    Load 13 T11    3  0.069429 -8.269183e-04              0.0              0.0     NaN      1.0        True  wye
83    Load 13 T12    3  0.064458 -1.319009e-03              0.0              0.0     NaN      1.0        True  wye
84    Load 13 T13    3  0.071794 -2.639524e-03              0.0              0.0     NaN      1.0        True  wye
85    Load 13 T14    3  0.069862 -8.436819e-04              0.0              0.0     NaN      1.0        True  wye
86    Load 13 T15    3  0.070302 -2.886056e-03              0.0              0.0     NaN      1.0        True  wye
87    Load 13 T16    3  0.073487 -7.751866e-03              0.0              0.0     NaN      1.0        True  wye
88    Load 13 T17    3  0.046367 -4.435305e-04              0.0              0.0     NaN      1.0        True  wye
89    Load 13 T18    3  0.031335 -2.310390e-04              0.0              0.0     NaN      1.0        True  wye
90    Load 13 T19    3  0.031993 -2.374129e-04              0.0              0.0     NaN      1.0        True  wye
91    Load 13 T20    3  0.029311 -2.186848e-04              0.0              0.0     NaN      1.0        True  wye
92    Load 13 T21    3  0.029305 -2.167150e-04              0.0              0.0     NaN      1.0        True  wye
93    Load 13 T22    3  0.026467 -1.528404e-04              0.0              0.0     NaN      1.0        True  wye
94    Load 13 T23    3  0.025048 -1.188882e-04              0.0              0.0     NaN      1.0        True  wye
95    Load 13 T24    3  0.020774 -8.502257e-05              0.0              0.0     NaN      1.0        True  wye
96     Load 10 T1    4  0.006925  0.000000e+00              0.0              0.0     NaN      1.0        True  wye
97     Load 10 T2    4  0.006925  0.000000e+00              0.0              0.0     NaN      1.0        True  wye
98     Load 10 T3    4  0.006925  0.000000e+00              0.0              0.0     NaN      1.0        True  wye
99     Load 10 T4    4  0.006925  0.000000e+00              0.0              0.0     NaN      1.0        True  wye
100    Load 10 T5    4  0.007040  0.000000e+00              0.0              0.0     NaN      1.0        True  wye
101    Load 10 T6    4  0.008751  0.000000e+00              0.0              0.0     NaN      1.0        True  wye
102    Load 10 T7    4  0.011416  0.000000e+00              0.0              0.0     NaN      1.0        True  wye
103    Load 10 T8    4  0.025607  3.212241e-03              0.0              0.0     NaN      1.0        True  wye
104    Load 10 T9    4  0.023689  9.509665e-04              0.0              0.0     NaN      1.0        True  wye
105   Load 10 T10    4  0.022454  0.000000e+00              0.0              0.0     NaN      1.0        True  wye
106   Load 10 T11    4  0.022165  0.000000e+00              0.0              0.0     NaN      1.0        True  wye
107   Load 10 T12    4  0.020291  0.000000e+00              0.0              0.0     NaN      1.0        True  wye
108   Load 10 T13    4  0.023244  0.000000e+00              0.0              0.0     NaN      1.0        True  wye
109   Load 10 T14    4  0.022507  0.000000e+00              0.0              0.0     NaN      1.0        True  wye
110   Load 10 T15    4  0.022727 -5.507254e-04              0.0              0.0     NaN      1.0        True  wye
111   Load 10 T16    4  0.024127 -2.011015e-03              0.0              0.0     NaN      1.0        True  wye
112   Load 10 T17    4  0.015321 -3.711438e-04              0.0              0.0     NaN      1.0        True  wye
113   Load 10 T18    4  0.010399  0.000000e+00              0.0              0.0     NaN      1.0        True  wye
114   Load 10 T19    4  0.010652  0.000000e+00              0.0              0.0     NaN      1.0        True  wye
115   Load 10 T20    4  0.009770  0.000000e+00              0.0              0.0     NaN      1.0        True  wye
116   Load 10 T21    4  0.009768  0.000000e+00              0.0              0.0     NaN      1.0        True  wye
117   Load 10 T22    4  0.008822  0.000000e+00              0.0              0.0     NaN      1.0        True  wye
118   Load 10 T23    4  0.008349  0.000000e+00              0.0              0.0     NaN      1.0        True  wye
119   Load 10 T24    4  0.006925  0.000000e+00              0.0              0.0     NaN      1.0        True  wye
120    Load 35 T1    5  0.042413 -1.129199e-02              0.0              0.0     NaN      1.0        True  wye
121    Load 35 T2    5  0.042413 -7.099395e-03              0.0              0.0     NaN      1.0        True  wye
122    Load 35 T3    5  0.042413 -6.806482e-03              0.0              0.0     NaN      1.0        True  wye
123    Load 35 T4    5  0.042413 -6.806482e-03              0.0              0.0     NaN      1.0        True  wye
124    Load 35 T5    5  0.043119 -1.000962e-02              0.0              0.0     NaN      1.0        True  wye
125    Load 35 T6    5  0.053598 -2.115587e-02              0.0              0.0     NaN      1.0        True  wye
126    Load 35 T7    5  0.070068 -1.118305e-02              0.0              0.0     NaN      1.0        True  wye
127    Load 35 T8    5  0.158183  4.085586e-02              0.0              0.0     NaN      1.0        True  wye
128    Load 35 T9    5  0.147973  2.700556e-02              0.0              0.0     NaN      1.0        True  wye
129   Load 35 T10    5  0.142421  1.108806e-02              0.0              0.0     NaN      1.0        True  wye
130   Load 35 T11    5  0.141750  7.410282e-03              0.0              0.0     NaN      1.0        True  wye
131   Load 35 T12    5  0.131601  6.520140e-03              0.0              0.0     NaN      1.0        True  wye
132   Load 35 T13    5  0.146579  1.058797e-02              0.0              0.0     NaN      1.0        True  wye
133   Load 35 T14    5  0.142635  7.514890e-03              0.0              0.0     NaN      1.0        True  wye
134   Load 35 T15    5  0.143533  6.990532e-03              0.0              0.0     NaN      1.0        True  wye
135   Load 35 T16    5  0.150037  8.863421e-03              0.0              0.0     NaN      1.0        True  wye
136   Load 35 T17    5  0.094667 -6.806482e-03              0.0              0.0     NaN      1.0        True  wye
137   Load 35 T18    5  0.063976  0.000000e+00              0.0              0.0     NaN      1.0        True  wye
138   Load 35 T19    5  0.065320 -1.994984e-02              0.0              0.0     NaN      1.0        True  wye
139   Load 35 T20    5  0.059843 -2.046526e-02              0.0              0.0     NaN      1.0        True  wye
140   Load 35 T21    5  0.059830 -1.974557e-02              0.0              0.0     NaN      1.0        True  wye
141   Load 35 T22    5  0.054037 -2.192474e-02              0.0              0.0     NaN      1.0        True  wye
142   Load 35 T23    5  0.051139 -2.115509e-02              0.0              0.0     NaN      1.0        True  wye
143   Load 35 T24    5  0.042413 -9.203033e-03              0.0              0.0     NaN      1.0        True  wye
144    Load 15 T1    6  0.003486 -1.558101e-03              0.0              0.0     NaN      1.0        True  wye
145    Load 15 T2    6  0.003486 -1.398031e-03              0.0              0.0     NaN      1.0        True  wye
146    Load 15 T3    6  0.003486 -1.377521e-03              0.0              0.0     NaN      1.0        True  wye
147    Load 15 T4    6  0.003486 -1.394548e-03              0.0              0.0     NaN      1.0        True  wye
148    Load 15 T5    6  0.003486 -1.630891e-03              0.0              0.0     NaN      1.0        True  wye
149    Load 15 T6    6  0.003486 -2.718761e-03              0.0              0.0     NaN      1.0        True  wye
150    Load 15 T7    6  0.009066 -4.576680e-03              0.0              0.0     NaN      1.0        True  wye
151    Load 15 T8    6  0.014703 -1.984404e-02              0.0              0.0     NaN      1.0        True  wye
152    Load 15 T9    6  0.025557 -1.425767e-02              0.0              0.0     NaN      1.0        True  wye
153   Load 15 T10    6  0.022259 -1.098406e-02              0.0              0.0     NaN      1.0        True  wye
154   Load 15 T11    6  0.020167 -1.022196e-02              0.0              0.0     NaN      1.0        True  wye
155   Load 15 T12    6  0.018323 -1.026490e-02              0.0              0.0     NaN      1.0        True  wye
156   Load 15 T13    6  0.022169 -1.163993e-02              0.0              0.0     NaN      1.0        True  wye
157   Load 15 T14    6  0.021603 -1.102208e-02              0.0              0.0     NaN      1.0        True  wye
158   Load 15 T15    6  0.022811 -1.109400e-02              0.0              0.0     NaN      1.0        True  wye
159   Load 15 T16    6  0.026591 -1.105899e-02              0.0              0.0     NaN      1.0        True  wye
160   Load 15 T17    6  0.029402 -1.188754e-02              0.0              0.0     NaN      1.0        True  wye
161   Load 15 T18    6  0.022675 -8.309061e-03              0.0              0.0     NaN      1.0        True  wye
162   Load 15 T19    6  0.020153 -7.837170e-03              0.0              0.0     NaN      1.0        True  wye
163   Load 15 T20    6  0.020263 -6.441861e-03              0.0              0.0     NaN      1.0        True  wye
164   Load 15 T21    6  0.004057 -4.518914e-03              0.0              0.0     NaN      1.0        True  wye
165   Load 15 T22    6  0.003486 -3.312065e-03              0.0              0.0     NaN      1.0        True  wye
166   Load 15 T23    6  0.003486 -2.407574e-03              0.0              0.0     NaN      1.0        True  wye
167   Load 15 T24    6  0.003486 -1.526710e-03              0.0              0.0     NaN      1.0        True  wye
168     Load 1 T1    7  0.031660 -1.285203e-03              0.0              0.0     NaN      1.0        True  wye
169     Load 1 T2    7  0.030395 -1.239459e-03              0.0              0.0     NaN      1.0        True  wye
170     Load 1 T3    7  0.029763 -1.216587e-03              0.0              0.0     NaN      1.0        True  wye
171     Load 1 T4    7  0.030286 -1.235513e-03              0.0              0.0     NaN      1.0        True  wye
172     Load 1 T5    7  0.035517 -1.449619e-03              0.0              0.0     NaN      1.0        True  wye
173     Load 1 T6    7  0.045499 -2.283475e-03              0.0              0.0     NaN      1.0        True  wye
174     Load 1 T7    7  0.053790 -3.499027e-03              0.0              0.0     NaN      1.0        True  wye
175     Load 1 T8    7  0.053815 -1.866783e-02              0.0              0.0     NaN      1.0        True  wye
176     Load 1 T9    7  0.051262 -1.542474e-02              0.0              0.0     NaN      1.0        True  wye
177    Load 1 T10    7  0.048644 -1.184533e-02              0.0              0.0     NaN      1.0        True  wye
178    Load 1 T11    7  0.048738 -1.302497e-02              0.0              0.0     NaN      1.0        True  wye
179    Load 1 T12    7  0.047354 -1.334473e-02              0.0              0.0     NaN      1.0        True  wye
180    Load 1 T13    7  0.047080 -1.322815e-02              0.0              0.0     NaN      1.0        True  wye
181    Load 1 T14    7  0.046168 -1.196239e-02              0.0              0.0     NaN      1.0        True  wye
182    Load 1 T15    7  0.048674 -1.150258e-02              0.0              0.0     NaN      1.0        True  wye
183    Load 1 T16    7  0.061084 -8.444274e-03              0.0              0.0     NaN      1.0        True  wye
184    Load 1 T17    7  0.076499 -6.645449e-03              0.0              0.0     NaN      1.0        True  wye
185    Load 1 T18    7  0.077583 -7.520531e-03              0.0              0.0     NaN      1.0        True  wye
186    Load 1 T19    7  0.072461 -7.200381e-03              0.0              0.0     NaN      1.0        True  wye
187    Load 1 T20    7  0.069968 -5.605988e-03              0.0              0.0     NaN      1.0        True  wye
188    Load 1 T21    7  0.064691 -4.296484e-03              0.0              0.0     NaN      1.0        True  wye
189    Load 1 T22    7  0.053092 -3.238204e-03              0.0              0.0     NaN      1.0        True  wye
190    Load 1 T23    7  0.042802 -2.317315e-03              0.0              0.0     NaN      1.0        True  wye
191    Load 1 T24    7  0.034189 -1.378301e-03              0.0              0.0     NaN      1.0        True  wye
192    Load 36 T1    8  0.024236 -9.520507e-04              0.0              0.0     NaN      1.0        True  wye
193    Load 36 T2    8  0.024236 -9.520483e-04              0.0              0.0     NaN      1.0        True  wye
194    Load 36 T3    8  0.024236 -9.520475e-04              0.0              0.0     NaN      1.0        True  wye
195    Load 36 T4    8  0.024236 -9.520475e-04              0.0              0.0     NaN      1.0        True  wye
196    Load 36 T5    8  0.024639 -9.806555e-04              0.0              0.0     NaN      1.0        True  wye
197    Load 36 T6    8  0.030628 -1.530677e-03              0.0              0.0     NaN      1.0        True  wye
198    Load 36 T7    8  0.040039 -2.607565e-03              0.0              0.0     NaN      1.0        True  wye
199    Load 36 T8    8  0.090390 -1.081734e-02              0.0              0.0     NaN      1.0        True  wye
...

EXT_GRID:
        name  bus  vm_pu  va_degree  slack_weight  in_service
0  ExtGrid 0   60    1.0        0.0           1.0        True
--------------------------------------------------

LINE:
        name std_type  from_bus  to_bus  length_km  r_ohm_per_km  x_ohm_per_km  c_nf_per_km  g_us_per_km  max_i_ka   df  parallel  type  in_service   geo
0     Line 0     None        61      50   1.330873        0.1732         0.381          0.0          0.0      1.53  1.0         1  None        True  None
1     Line 3     None        61      52   0.496254        0.1732         0.381          0.0          0.0      1.53  1.0         1  None        True  None
2     Line 5     None        61      56   1.567692        0.1732         0.381          0.0          0.0      1.53  1.0         1  None        True  None
3     Line 7     None        61      58   0.408906        0.1732         0.381          0.0          0.0      1.53  1.0         1  None        True  None
4     Line 8     None        50      33   0.142217        0.1732         0.381          0.0          0.0      1.53  1.0         1  None        True  None
5     Line 9     None        50      34   0.132992        0.1732         0.381          0.0          0.0      1.53  1.0         1  None        True  None
6    Line 28     None        52      17   0.044648        0.1732         0.381          0.0          0.0      1.53  1.0         1  None        True  None
7    Line 39     None        56      42   0.068676        0.1732         0.381          0.0          0.0      1.53  1.0         1  None        True  None
8    Line 41     None        56      48   0.076229        0.1732         0.381          0.0          0.0      1.53  1.0         1  None        True  None
9    Line 48     None        58       9   0.073393        0.1732         0.381          0.0          0.0      1.53  1.0         1  None        True  None
10   Line 49     None        58      11   0.077799        0.1732         0.381          0.0          0.0      1.53  1.0         1  None        True  None
11   Line 50     None        58      21   0.141186        0.1732         0.381          0.0          0.0      1.53  1.0         1  None        True  None
12   Line 52     None        51      31   0.011202        0.1732         0.381          0.0          0.0      1.53  1.0         1  None        True  None
13   Line 53     None        51      32   0.056133        0.1732         0.381          0.0          0.0      1.53  1.0         1  None        True  None
14   Line 68     None        53       8   0.125243        0.1732         0.381          0.0          0.0      1.53  1.0         1  None        True  None
15   Line 72     None        53      20   0.125945        0.1732         0.381          0.0          0.0      1.53  1.0         1  None        True  None
16   Line 78     None        55      46   0.072861        0.1732         0.381          0.0          0.0      1.53  1.0         1  None        True  None
17   Line 79     None        55      49   0.088460        0.1732         0.381          0.0          0.0      1.53  1.0         1  None        True  None
18   Line 83     None        57      44   0.038078        0.1732         0.381          0.0          0.0      1.53  1.0         1  None        True  None
19   Line 84     None        57      46   0.128961        0.1732         0.381          0.0          0.0      1.53  1.0         1  None        True  None
20  Line 100     None        59       6   0.067553        0.1732         0.381          0.0          0.0      1.53  1.0         1  None        True  None
21  Line 104     None        59      16   0.083201        0.1732         0.381          0.0          0.0      1.53  1.0         1  None        True  None
22  Line 110     None         1       9   0.089443        0.1732         0.381          0.0          0.0      1.53  1.0         1  None        True  None
23  Line 112     None        21      23   0.152971        0.1732         0.381          0.0          0.0      1.53  1.0         1  None        True  None
24  Line 118     None        40      41   0.080000        0.1732         0.381          0.0          0.0      1.53  1.0         1  None        True  None
25  Line 122     None        33      40   0.131529        0.1732         0.381          0.0          0.0      1.53  1.0         1  None        True  None
26  Line 124     None        12      17   0.058310        0.1732         0.381          0.0          0.0      1.53  1.0         1  None        True  None
27  Line 128     None        24      17   0.092195        0.1732         0.381          0.0          0.0      1.53  1.0         1  None        True  None
28  Line 130     None         5       0   0.063246        0.1732         0.381          0.0          0.0      1.53  1.0         1  None        True  None
29  Line 131     None         5      12   0.126491        0.1732         0.381          0.0          0.0      1.53  1.0         1  None        True  None
30  Line 134     None        29      25   0.120416        0.1732         0.381          0.0          0.0      1.53  1.0         1  None        True  None
31  Line 135     None        30      28   0.084853        0.1732         0.381          0.0          0.0      1.53  1.0         1  None        True  None
32  Line 136     None        29      28   0.076158        0.1732         0.381          0.0          0.0      1.53  1.0         1  None        True  None
33  Line 137     None        24      28   0.098489        0.1732         0.381          0.0          0.0      1.53  1.0         1  None        True  None
34  Line 143     None        45      48   0.092195        0.1732         0.381          0.0          0.0      1.53  1.0         1  None        True  None
35  Line 145     None        37      45   0.136015        0.1732         0.381          0.0          0.0      1.53  1.0         1  None        True  None
36  Line 146     None         4       7   0.067082        0.1732         0.381          0.0          0.0      1.53  1.0         1  None        True  None
37  Line 147     None        13       7   0.092195        0.1732         0.381          0.0          0.0      1.53  1.0         1  None        True  None
38  Line 148     None         6       7   0.104403        0.1732         0.381          0.0          0.0      1.53  1.0         1  None        True  None
39  Line 151     None        14      22   0.092195        0.1732         0.381          0.0          0.0      1.53  1.0         1  None        True  None
40  Line 154     None         3       2   0.060828        0.1732         0.381          0.0          0.0      1.53  1.0         1  None        True  None
41  Line 156     None        14      16   0.092195        0.1732         0.381          0.0          0.0      1.53  1.0         1  None        True  None
42  Line 157     None        27      16   0.120416        0.1732         0.381          0.0          0.0      1.53  1.0         1  None        True  None
43  Line 161     None        18      13   0.063246        0.1732         0.381          0.0          0.0      1.53  1.0         1  None        True  None
44  Line 162     None         6       3   0.063246        0.1732         0.381          0.0          0.0      1.53  1.0         1  None        True  None
45  Line 165     None        32      35   0.058310        0.1732         0.381          0.0          0.0      1.53  1.0         1  None        True  None
46  Line 166     None        36      35   0.060000        0.1732         0.381          0.0          0.0      1.53  1.0         1  None        True  None
47  Line 167     None        47      35   0.151327        0.1732         0.381          0.0          0.0      1.53  1.0         1  None        True  None
48  Line 174     None         8      15   0.143178        0.1732         0.381          0.0          0.0      1.53  1.0         1  None        True  None
49  Line 175     None        19      15   0.080623        0.1732         0.381          0.0          0.0      1.53  1.0         1  None        True  None
50  Line 176     None        10      20   0.156205        0.1732         0.381          0.0          0.0      1.53  1.0         1  None        True  None
51  Line 177     None        26      20   0.120416        0.1732         0.381          0.0          0.0      1.53  1.0         1  None        True  None
52  Line 185     None        38      39   0.082462        0.1732         0.381          0.0          0.0      1.53  1.0         1  None        True  None
53  Line 187     None        44      39   0.058310        0.1732         0.381          0.0          0.0      1.53  1.0         1  None        True  None
54  Line 194     None        44      43   0.102956        0.1732         0.381          0.0          0.0      1.53  1.0         1  None        True  None
--------------------------------------------------

TRAFO:
                   name std_type  hv_bus  lv_bus  sn_mva  vn_hv_kv  vn_lv_kv  vk_percent  vkr_percent  pfe_kw  i0_percent  shift_degree tap_side  tap_neutral  tap_min  tap_max  tap_step_percent  tap_step_degree  tap_pos tap_changer_type  id_characteristic_table  tap_dependency_table  parallel   df  in_service
0  MV/LV Transformer 51     None      50      51    10.0      15.0       0.4        0.01         0.01    0.01        0.01           0.0     None          NaN      NaN      NaN               NaN              NaN      NaN              NaN                     <NA>                 False         1  1.0        True
1  MV/LV Transformer 54     None      52      53    10.0      15.0       0.4        0.01         0.01    0.01        0.01           0.0     None          NaN      NaN      NaN               NaN              NaN      NaN              NaN                     <NA>                 False         1  1.0        True
2  MV/LV Transformer 55     None      54      55    10.0      15.0       0.4        0.01         0.01    0.01        0.01           0.0     None          NaN      NaN      NaN               NaN              NaN      NaN              NaN                     <NA>                 False         1  1.0        True
3  MV/LV Transformer 56     None      56      57    10.0      15.0       0.4        0.01         0.01    0.01        0.01           0.0     None          NaN      NaN      NaN               NaN              NaN      NaN              NaN                     <NA>                 False         1  1.0        True
4  MV/LV Transformer 58     None      58      59    10.0      15.0       0.4        0.01         0.01    0.01        0.01           0.0     None          NaN      NaN      NaN               NaN              NaN      NaN              NaN                     <NA>                 False         1  1.0        True
5   Slack Transformer 0     None      60      61    40.0      70.0      15.0        0.01         0.01    0.01        0.01           0.0     None          NaN      NaN      NaN               NaN              NaN      NaN              NaN                     <NA>                 False         1  1.0        True
--------------------------------------------------

RES_BUS:
       vm_pu  va_degree      p_mw        q_mvar
0   0.999663  -0.041525  0.126879 -1.750562e-06
1   0.999697  -0.031980  0.125313  1.942158e-02
2   0.991046  -1.148459  0.002526 -1.175624e-06
3   0.991214  -1.127112  0.020774 -8.502257e-05
4   0.984632  -1.989337  0.006925  0.000000e+00
5   0.999669  -0.040746  0.042413 -9.203033e-03
6   0.992816  -0.922467  0.003486 -1.526710e-03
7   0.985143  -1.924001  0.034189 -1.378301e-03
8   0.992256  -1.000276  0.024236 -9.529925e-04
9   0.999708  -0.030968  0.248207 -6.000426e-03
10  0.990147  -1.259560  0.018177  0.000000e+00
11  0.999730  -0.028472  0.017311  2.511599e-03
12  0.999684  -0.038616  0.016157 -2.013373e-02
13  0.982379  -2.275265  0.025967  4.316809e-04
14  0.980806  -2.453086  0.018177  0.000000e+00
15  0.987414  -1.625854  0.030295  3.742226e-05
16  0.989210  -1.404198  0.030295 -4.350912e-03
17  0.999689  -0.037491  0.375939  6.734355e-02
18  0.982371  -2.286483  0.001058 -4.324020e-04
19  0.987406  -1.638240  0.000926 -3.783517e-04
20  0.993274  -0.865669  0.015580 -8.928046e-04
21  0.999710  -0.029931  0.098684  4.482149e-02
22  0.974519  -3.278544  0.062324 -8.744576e-04
23  0.999710  -0.030481  0.030171 -1.511462e-02
24  0.999690  -0.038163  0.002883 -2.490568e-02
25  0.999682  -0.039354  0.030295 -2.047700e-07
26  0.991445  -1.096713  0.013849  0.000000e+00
27  0.988327  -1.516462  0.006681  0.000000e+00
28  0.999687  -0.038746  0.020196 -5.394321e-03
29  0.999685  -0.039000  0.003364 -1.412927e-03
30  0.999686  -0.038779  0.004008  0.000000e+00
31  0.999590  -0.050625  0.016157 -7.322804e-06
32  0.997790  -0.279378  0.020196 -1.494496e-04
33  0.999776  -0.027551  0.003295 -7.244550e-03
34  0.999782  -0.026338  0.036354  7.147273e-03
35  0.996986  -0.381352  0.010387  3.316673e-04
36  0.996981  -0.388241  0.000705 -2.882680e-04
37  0.999601  -0.048979  0.016157  0.000000e+00
38  0.993868  -0.776100  0.018177  0.000000e+00
39  0.995507  -0.569405  0.010684 -1.850610e-04
40  0.999765  -0.028985  0.002614 -1.153944e-02
41  0.999756  -0.029795  0.109649  1.153479e-02
42  0.999598  -0.049197  0.164473  3.587717e-03
43  0.995595  -0.558288  0.015580 -6.276433e-05
44  0.997331  -0.337474  0.010845 -2.848928e-04
45  0.999603  -0.048766  0.012118  0.000000e+00
46  0.993186  -0.828736  0.025967 -6.734474e-04
47  0.996739  -0.416231  0.001648 -6.864761e-05
48  0.999605  -0.048513  0.024236 -3.872551e-03
49  0.989809  -1.232066  0.018177 -7.230138e-05
50  0.999787  -0.025911  0.000000  0.000000e+00
51  0.999786  -0.025910  0.000000  0.000000e+00
52  0.999711  -0.034806  0.000000  0.000000e+00
53  0.999710  -0.034806  0.000000  0.000000e+00
54  0.991560  -1.008138  0.000000  0.000000e+00
55  0.991560  -1.008138  0.000000  0.000000e+00
56  0.999608  -0.048111  0.000000  0.000000e+00
57  0.999607  -0.048110  0.000000  0.000000e+00
58  0.999731  -0.028350  0.000000  0.000000e+00
59  0.999729  -0.028350  0.000000  0.000000e+00
60  1.000000   0.000000 -1.980702 -6.170107e-02
61  0.999995   0.000009  0.000000  0.000000e+00
--------------------------------------------------

RES_LINE:
    p_from_mw   q_from_mvar   p_to_mw     q_to_mvar         pl_mw       ql_mvar  i_from_ka   i_to_ka      i_ka  vm_from_pu  va_from_degree  vm_to_pu  va_to_degree  loading_percent
0    0.201141  9.912075e-04 -0.201099 -9.000287e-04  4.144927e-05  9.117882e-05   0.007742  0.007742  0.007742    0.999995        0.000009  0.999787     -0.025911         0.506016
1    0.726406  7.741216e-03 -0.726204 -7.297752e-03  2.015957e-04  4.434640e-04   0.027961  0.027961  0.027961    0.999995        0.000009  0.999711     -0.034806         1.827522
2    0.317130  1.950480e-03 -0.317009 -1.683488e-03  1.213729e-04  2.669923e-04   0.012207  0.012207  0.012207    0.999995        0.000009  0.999608     -0.048111         0.797819
3    0.736005  4.701820e-02 -0.735834 -4.664158e-02  1.712078e-04  3.766176e-04   0.028387  0.028387  0.028387    0.999995        0.000009  0.999731     -0.028350         1.855343
4    0.115562 -7.241512e-03 -0.115560  7.244742e-03  1.468365e-06  3.230063e-06   0.004458  0.004458  0.004458    0.999787       -0.025911  0.999776     -0.027551         0.291350
5    0.036354  7.147582e-03 -0.036354 -7.147273e-03  1.405883e-07  3.092618e-07   0.001426  0.001426  0.001426    0.999787       -0.025911  0.999782     -0.026338         0.093226
6    0.622154  6.334187e-03 -0.622140 -6.304902e-03  1.331250e-05  2.928442e-05   0.023955  0.023955  0.023955    0.999711       -0.034806  0.999689     -0.037491         1.565678
7    0.164475  3.590867e-03 -0.164473 -3.587717e-03  1.431903e-06  3.149855e-06   0.006335  0.006335  0.006335    0.999608       -0.048111  0.999598     -0.049197         0.414028
8    0.052511 -3.872008e-03 -0.052511  3.872366e-03  1.628114e-07  3.581475e-07   0.002027  0.002027  0.002027    0.999608       -0.048111  0.999605     -0.048513         0.132512
9    0.373529  1.344097e-02 -0.373521 -1.342360e-02  7.897055e-06  1.737170e-05   0.014390  0.014390  0.014390    0.999731       -0.028350  0.999708     -0.030968         0.940543
10   0.017311  2.511639e-03 -0.017311 -2.511599e-03  1.833501e-08  4.033279e-08   0.000673  0.000673  0.000673    0.999731       -0.028350  0.999730     -0.028472         0.044018
11   0.128857  2.971134e-02 -0.128855 -2.970716e-02  1.901536e-06  4.182941e-06   0.005091  0.005091  0.005091    0.999731       -0.028350  0.999710     -0.029931         0.332760
12   0.016160 -3.533534e-07 -0.016157  7.322804e-06  3.168265e-06  6.969451e-06   0.023330  0.023330  0.023330    0.999786       -0.025910  0.999590     -0.050625         1.524867
13   0.033013 -5.211424e-06 -0.032947  1.509545e-04  6.625381e-05  1.457431e-04   0.047661  0.047661  0.047661    0.999786       -0.025910  0.997790     -0.279378         3.115080
14   0.056037 -1.576983e-05 -0.055611  9.528308e-04  4.259815e-04  9.370610e-04   0.080906  0.080906  0.080906    0.999710       -0.034806  0.992256     -1.000276         5.288006
15   0.048003 -2.003631e-05 -0.047688  7.115021e-04  3.143356e-04  6.914657e-04   0.069306  0.069306  0.069306    0.999710       -0.034806  0.993274     -0.865669         4.529812
16  -0.018219 -9.818788e-04  0.018246  1.040624e-03  2.670507e-05  5.874498e-05   0.026559  0.026559  0.026559    0.991560       -1.008138  0.993186     -0.828736         1.735892
17   0.018209 -1.262971e-06 -0.018177  7.230138e-05  3.229358e-05  7.103841e-05   0.026506  0.026506  0.026506    0.991560       -1.008138  0.989809     -1.232066         1.732441
18   0.055524 -1.030109e-05 -0.055396  2.900517e-04  1.271727e-04  2.797507e-04   0.080173  0.080173  0.080173    0.999607       -0.048110  0.997331     -0.337474         5.240059
19   0.044489  9.757655e-04 -0.044213 -3.671763e-04  2.766605e-04  6.085892e-04   0.064255  0.064255  0.064255    0.999607       -0.048110  0.993186     -0.828736         4.199702
20   0.096262 -4.964084e-05 -0.095584  1.541038e-03  6.779788e-04  1.491397e-03   0.138980  0.138980  0.138980    0.999729       -0.028350  0.992816     -0.922467         9.083642
21   0.119864  2.786621e-05 -0.118570  2.820186e-03  1.294705e-03  2.848052e-03   0.173056  0.173056  0.173056    0.999729       -0.028350  0.989210     -1.404198        11.310852
22  -0.125313 -1.942158e-02  0.125314  1.942402e-02  1.107833e-06  2.436977e-06   0.004882  0.004882  0.004882    0.999697       -0.031980  0.999708     -0.030968         0.319109
23   0.030172 -1.511433e-02 -0.030171  1.511462e-02  1.341711e-07  2.951454e-07   0.001299  0.001299  0.001299    0.999710       -0.029931  0.999710     -0.030481         0.084918
24   0.109650  1.153644e-02 -0.109649 -1.153479e-02  7.489533e-07  1.647524e-06   0.004245  0.004245  0.004245    0.999765       -0.028985  0.999756     -0.029795         0.277432
25   0.112265 -1.920843e-07 -0.112264  3.000434e-06  1.276656e-06  2.808349e-06   0.004322  0.004322  0.004322    0.999776       -0.027551  0.999765     -0.028985         0.282488
26  -0.185453  2.933063e-02  0.185454 -2.932715e-02  1.583345e-06  3.482994e-06   0.007229  0.007229  0.007229    0.999684       -0.038616  0.999689     -0.037491         0.472489
27  -0.060747  3.171223e-02  0.060747 -3.171150e-02  3.334717e-07  7.335607e-07   0.002638  0.002638  0.002638    0.999690       -0.038163  0.999689     -0.037491         0.172444
28   0.126880 -2.533297e-08 -0.126879  1.750563e-06  7.842776e-07  1.725230e-06   0.004885  0.004885  0.004885    0.999669       -0.040746  0.999663     -0.041525         0.319296
29  -0.169293  9.203059e-03  0.169296 -9.196898e-03  2.800728e-06  6.160954e-06   0.006528  0.006528  0.006528    0.999669       -0.040746  0.999684     -0.038616         0.426658
30   0.030295 -1.751388e-08 -0.030295  2.047704e-07  8.512555e-08  1.872566e-07   0.001166  0.001166  0.001166    0.999685       -0.039000  0.999682     -0.039354         0.076236
31  -0.004008  1.300908e-12  0.004008  2.308722e-09  1.050120e-09  2.310022e-09   0.000154  0.000154  0.000154    0.999686       -0.038779  0.999687     -0.038746         0.010087
32  -0.033659  1.412944e-03  0.033659 -1.412798e-03  6.657462e-08  1.464488e-07   0.001297  0.001297  0.001297    0.999685       -0.039000  0.999687     -0.038746         0.084776
33   0.057864 -6.806550e-03 -0.057863  6.807116e-03  2.575145e-07  5.664725e-07   0.002243  0.002243  0.002243    0.999690       -0.038163  0.999687     -0.038746         0.146616
34  -0.028275 -6.017600e-08  0.028275  1.850884e-07  5.678435e-08  1.249124e-07   0.001089  0.001089  0.001089    0.999603       -0.048766  0.999605     -0.048513         0.071160
35  -0.016157  1.230453e-12  0.016157  6.017246e-08  2.735455e-08  6.017369e-08   0.000622  0.000622  0.000622    0.999601       -0.048979  0.999603     -0.048766         0.040663
36  -0.006925  1.688916e-16  0.006928  7.900273e-06  3.591410e-06  7.900273e-06   0.010151  0.010151  0.010151    0.984632       -1.989337  0.985143     -1.924001         0.663443
37  -0.027025  5.171730e-07  0.027101  1.656296e-04  7.552917e-05  1.661467e-04   0.039707  0.039707  0.039707    0.982379       -2.275265  0.985143     -1.924001         2.595235
38   0.068760 -1.228927e-05 -0.068218  1.204771e-03  5.420941e-04  1.192482e-03   0.099965  0.099965  0.099965    0.992816       -0.922467  0.985143     -1.924001         6.533633
39   0.062732  2.365222e-05 -0.062324  8.744576e-04  4.082746e-04  8.981098e-04   0.092318  0.092318  0.092318    0.980806       -2.453086  0.974519     -3.278544         6.033863
40   0.002527 -2.345068e-07 -0.002526  1.175624e-06  4.278257e-07  9.411177e-07   0.003679  0.003679  0.003679    0.991214       -1.127112  0.991046     -1.148459         0.240468
41  -0.080909 -2.365222e-05  0.081588  1.517624e-03  6.791495e-04  1.493972e-03   0.119068  0.119068  0.119068    0.980806       -2.453086  0.989210     -1.404198         7.782192
42  -0.006681  6.912060e-16  0.006687  1.310148e-05  5.955843e-06  1.310148e-05   0.009757  0.009757  0.009757    0.988327       -1.516462  0.989210     -1.404198         0.637681
43  -0.001058  4.324020e-04  0.001058 -4.321981e-04  9.269166e-08  2.039003e-07   0.001679  0.001679  0.001679    0.982371       -2.286483  0.982379     -2.275265         0.109769
44   0.023338 -2.037972e-06 -0.023300  8.525707e-05  3.783083e-05  8.321910e-05   0.033929  0.033929  0.033929    0.992816       -0.922467  0.991214     -1.127112         2.217594
45   0.012751 -1.504961e-06 -0.012740  2.417860e-05  1.030728e-05  2.267363e-05   0.018445  0.018445  0.018445    0.997790       -0.279378  0.996986     -0.381352         1.205525
46  -0.000705  2.882680e-04  0.000705 -2.881845e-04  3.794523e-08  8.347075e-08   0.001103  0.001103  0.001103    0.996981       -0.388241  0.996986     -0.381352         0.072107
47  -0.001648  6.864761e-05  0.001648 -6.766136e-05  4.483416e-07  9.862479e-07   0.002388  0.002388  0.002388    0.996739       -0.416231  0.996986     -0.381352         0.156070
48   0.031376  1.617081e-07 -0.031221  3.407325e-04  1.549682e-04  3.408942e-04   0.045640  0.045640  0.045640    0.992256       -1.000276  0.987414     -1.625854         2.983024
49  -0.000926  3.783517e-04  0.000926 -3.781547e-04  8.954545e-08  1.969793e-07   0.001462  0.001462  0.001462    0.987406       -1.638240  0.987414     -1.625854         0.095558
50  -0.018177  2.484449e-16  0.018234  1.253539e-04  5.698502e-05  1.253539e-04   0.026497  0.026497  0.026497    0.990147       -1.259560  0.993274     -0.865669         1.731837
51  -0.013849 -1.104802e-16  0.013874  5.594866e-05  2.543388e-05  5.594866e-05   0.020162  0.020162  0.020162    0.991445       -1.096713  0.993274     -0.865669         1.317766
52  -0.018177  1.829266e-15  0.018207  6.568085e-05  2.985807e-05  6.568085e-05   0.026398  0.026398  0.026398    0.993868       -0.776100  0.995507     -0.569405         1.725352
53   0.028944 -2.434993e-06 -0.028891  1.193802e-04  5.316247e-05  1.169452e-04   0.041889  0.041889  0.041889    0.997331       -0.337474  0.995507     -0.569405         2.737832
54   0.015607 -2.723971e-06 -0.015580  6.276433e-05  2.729394e-05  6.004036e-05   0.022588  0.022588  0.022588    0.997331       -0.337474  0.995595     -0.558288         1.476320
--------------------------------------------------

RES_TRAFO:
        p_hv_mw     q_hv_mvar   p_lv_mw  q_lv_mvar    pl_mw   ql_mvar       i_hv_ka   i_lv_ka  vm_hv_pu  va_hv_degree  vm_lv_pu  va_lv_degree  loading_percent
0  4.918364e-02  9.939585e-04 -0.049174   0.000006  0.00001  0.001000  1.893869e-03  0.070991  0.999787     -0.025911  0.999786     -0.025910         0.492042
1  1.040503e-01  9.635654e-04 -0.104040   0.000036  0.00001  0.000999  4.006226e-03  0.150213  0.999711     -0.034806  0.999710     -0.034806         1.040848
2 -4.017463e-11  1.772653e-10  0.000010   0.000983  0.00001  0.000983  7.055524e-12  0.001431  0.991560     -1.008138  0.991560     -1.008138         0.009916
3  1.000229e-01  1.964629e-03 -0.100013  -0.000965  0.00001  0.000999  3.852138e-03  0.144420  0.999608     -0.048111  0.999607     -0.048110         1.000815
4  2.161365e-01  9.776352e-04 -0.216126   0.000022  0.00001  0.000999  8.321423e-03  0.312036  0.999731     -0.028350  0.999729     -0.028350         2.161969
5  1.980702e+00  6.170107e-02 -1.980682  -0.057701  0.00002  0.004000  1.634448e-02  0.076269  1.000000      0.000000  0.999995      0.000009         4.954156
--------------------------------------------------

RES_EXT_GRID:
       p_mw    q_mvar
0  1.980702  0.061701
--------------------------------------------------

RES_LOAD:
          p_mw        q_mvar
0     0.000000 -0.000000e+00
1     0.000000 -0.000000e+00
2     0.000000 -0.000000e+00
3     0.000000 -0.000000e+00
4     0.000000 -0.000000e+00
5     0.000000 -0.000000e+00
6     0.000000 -0.000000e+00
7     0.000000  0.000000e+00
8     0.000000  0.000000e+00
9     0.000000  0.000000e+00
10    0.000000  0.000000e+00
11    0.000000 -0.000000e+00
12    0.000000  0.000000e+00
13    0.000000  0.000000e+00
14    0.000000  0.000000e+00
15    0.000000  0.000000e+00
16    0.000000 -0.000000e+00
17    0.000000 -0.000000e+00
18    0.000000 -0.000000e+00
19    0.000000 -0.000000e+00
20    0.000000 -0.000000e+00
21    0.000000 -0.000000e+00
22    0.000000 -0.000000e+00
23    0.126879 -1.750562e-06
24    0.000000  0.000000e+00
25    0.000000  0.000000e+00
26    0.000000  0.000000e+00
27    0.000000  0.000000e+00
28    0.000000  0.000000e+00
29    0.000000  0.000000e+00
30    0.000000  0.000000e+00
31    0.000000  0.000000e+00
32    0.000000  0.000000e+00
33    0.000000  0.000000e+00
34    0.000000  0.000000e+00
35    0.000000  0.000000e+00
36    0.000000  0.000000e+00
37    0.000000  0.000000e+00
38    0.000000  0.000000e+00
39    0.000000  0.000000e+00
40    0.000000  0.000000e+00
41    0.000000  0.000000e+00
42    0.000000  0.000000e+00
43    0.000000  0.000000e+00
44    0.000000  0.000000e+00
45    0.000000  0.000000e+00
46    0.000000  0.000000e+00
47    0.125313  1.942158e-02
48    0.000000 -0.000000e+00
49    0.000000 -0.000000e+00
50    0.000000 -0.000000e+00
51    0.000000 -0.000000e+00
52    0.000000 -0.000000e+00
53    0.000000 -0.000000e+00
54    0.000000 -0.000000e+00
55    0.000000 -0.000000e+00
56    0.000000 -0.000000e+00
57    0.000000 -0.000000e+00
58    0.000000 -0.000000e+00
59    0.000000  0.000000e+00
60    0.000000 -0.000000e+00
61    0.000000 -0.000000e+00
62    0.000000 -0.000000e+00
63    0.000000 -0.000000e+00
64    0.000000 -0.000000e+00
65    0.000000 -0.000000e+00
66    0.000000 -0.000000e+00
67    0.000000 -0.000000e+00
68    0.000000 -0.000000e+00
69    0.000000 -0.000000e+00
70    0.000000 -0.000000e+00
71    0.002526 -1.175624e-06
72    0.000000 -0.000000e+00
73    0.000000 -0.000000e+00
74    0.000000 -0.000000e+00
75    0.000000 -0.000000e+00
76    0.000000 -0.000000e+00
77    0.000000 -0.000000e+00
78    0.000000 -0.000000e+00
79    0.000000  0.000000e+00
80    0.000000  0.000000e+00
81    0.000000 -0.000000e+00
82    0.000000 -0.000000e+00
83    0.000000 -0.000000e+00
84    0.000000 -0.000000e+00
85    0.000000 -0.000000e+00
86    0.000000 -0.000000e+00
87    0.000000 -0.000000e+00
88    0.000000 -0.000000e+00
89    0.000000 -0.000000e+00
90    0.000000 -0.000000e+00
91    0.000000 -0.000000e+00
92    0.000000 -0.000000e+00
93    0.000000 -0.000000e+00
94    0.000000 -0.000000e+00
95    0.020774 -8.502257e-05
96    0.000000  0.000000e+00
97    0.000000  0.000000e+00
98    0.000000  0.000000e+00
99    0.000000  0.000000e+00
100   0.000000  0.000000e+00
101   0.000000  0.000000e+00
102   0.000000  0.000000e+00
103   0.000000  0.000000e+00
104   0.000000  0.000000e+00
105   0.000000  0.000000e+00
106   0.000000  0.000000e+00
107   0.000000  0.000000e+00
108   0.000000  0.000000e+00
109   0.000000  0.000000e+00
110   0.000000 -0.000000e+00
111   0.000000 -0.000000e+00
112   0.000000 -0.000000e+00
113   0.000000  0.000000e+00
114   0.000000  0.000000e+00
115   0.000000  0.000000e+00
116   0.000000  0.000000e+00
117   0.000000  0.000000e+00
118   0.000000  0.000000e+00
119   0.006925  0.000000e+00
120   0.000000 -0.000000e+00
121   0.000000 -0.000000e+00
122   0.000000 -0.000000e+00
123   0.000000 -0.000000e+00
124   0.000000 -0.000000e+00
125   0.000000 -0.000000e+00
126   0.000000 -0.000000e+00
127   0.000000  0.000000e+00
128   0.000000  0.000000e+00
129   0.000000  0.000000e+00
130   0.000000  0.000000e+00
131   0.000000  0.000000e+00
132   0.000000  0.000000e+00
133   0.000000  0.000000e+00
134   0.000000  0.000000e+00
135   0.000000  0.000000e+00
136   0.000000 -0.000000e+00
137   0.000000  0.000000e+00
138   0.000000 -0.000000e+00
139   0.000000 -0.000000e+00
140   0.000000 -0.000000e+00
141   0.000000 -0.000000e+00
142   0.000000 -0.000000e+00
143   0.042413 -9.203033e-03
144   0.000000 -0.000000e+00
145   0.000000 -0.000000e+00
146   0.000000 -0.000000e+00
147   0.000000 -0.000000e+00
148   0.000000 -0.000000e+00
149   0.000000 -0.000000e+00
150   0.000000 -0.000000e+00
151   0.000000 -0.000000e+00
152   0.000000 -0.000000e+00
153   0.000000 -0.000000e+00
154   0.000000 -0.000000e+00
155   0.000000 -0.000000e+00
156   0.000000 -0.000000e+00
157   0.000000 -0.000000e+00
158   0.000000 -0.000000e+00
159   0.000000 -0.000000e+00
160   0.000000 -0.000000e+00
161   0.000000 -0.000000e+00
162   0.000000 -0.000000e+00
163   0.000000 -0.000000e+00
164   0.000000 -0.000000e+00
165   0.000000 -0.000000e+00
166   0.000000 -0.000000e+00
167   0.003486 -1.526710e-03
168   0.000000 -0.000000e+00
169   0.000000 -0.000000e+00
170   0.000000 -0.000000e+00
171   0.000000 -0.000000e+00
172   0.000000 -0.000000e+00
173   0.000000 -0.000000e+00
174   0.000000 -0.000000e+00
175   0.000000 -0.000000e+00
176   0.000000 -0.000000e+00
177   0.000000 -0.000000e+00
178   0.000000 -0.000000e+00
179   0.000000 -0.000000e+00
180   0.000000 -0.000000e+00
181   0.000000 -0.000000e+00
182   0.000000 -0.000000e+00
183   0.000000 -0.000000e+00
184   0.000000 -0.000000e+00
185   0.000000 -0.000000e+00
186   0.000000 -0.000000e+00
187   0.000000 -0.000000e+00
188   0.000000 -0.000000e+00
189   0.000000 -0.000000e+00
190   0.000000 -0.000000e+00
191   0.034189 -1.378301e-03
192   0.000000 -0.000000e+00
193   0.000000 -0.000000e+00
194   0.000000 -0.000000e+00
195   0.000000 -0.000000e+00
196   0.000000 -0.000000e+00
197   0.000000 -0.000000e+00
198   0.000000 -0.000000e+00
199   0.000000 -0.000000e+00
...

BUS_GEODATA:
             x           y
0   187.000000   47.000000
1   191.000000   18.000000
2   195.000000   34.000000
3   196.000000   28.000000
4   189.000000    9.000000
5   193.000000   49.000000
6   198.000000   22.000000
7   195.000000   12.000000
8   192.000000   57.000000
9   199.000000   14.000000
10  201.000000   45.000000
11  204.000000   27.000000
12  197.000000   61.000000
13  201.000000    5.000000
14  210.000000   31.000000
15  189.000000   71.000000
16  212.000000   22.000000
17  200.000000   66.000000
18  207.000000    3.000000
19  188.000000   79.000000
20  213.000000   55.000000
21  218.000000   22.000000
22  219.000000   33.000000
23  215.000000    7.000000
24  202.000000   75.000000
25  217.000000   56.000000
26  221.000000   46.000000
27  221.000000   14.000000
28  211.000000   71.000000
29  218.000000   68.000000
30  217.000000   77.000000
31   33.000000   39.000000
32   27.000000   36.000000
33   25.000000   26.000000
34   23.000000   48.000000
35   22.000000   39.000000
36   22.000000   45.000000
37  237.000000  156.000000
38  245.000000  153.000000
39  243.000000  161.000000
40   12.000000   28.000000
41   12.000000   36.000000
42  253.000000  158.000000
43  237.000000  171.000000
44  246.000000  166.000000
45  241.000000  169.000000
46  260.000000  157.000000
47    7.000000   41.000000
48  250.000000  171.000000
49  262.000000  173.000000
50   32.113899   38.314630
51   32.613899   37.814630
52  203.104844   62.791502
53  203.604844   62.291502
54  261.147980  164.195118
55  261.647980  163.695118
56  248.841797  163.465590
57  249.341797  162.965590
58  204.157500   19.221664
59  204.657500   18.721664
60  165.000000   31.000000
61  165.500000   30.500000
--------------------------------------------------
